<additional>
    <vType id="passenger" vClass="passenger" length="4.5" accel="2.6" decel="4.5" sigma="0.5" maxSpeed="15"/>
    <vType id="auto" vClass="passenger" length="2.8" width="1.4" accel="2.0" decel="4.0" sigma="0.9" maxSpeed="12"/>
    <vType id="twowheeler" vClass="motorcycle" length="2.0" width="0.8" accel="3.0" decel="5.0" sigma="0.7" maxSpeed="15"/>
    <vType id="bus" vClass="bus" length="10.0" accel="1.2" decel="3.0" sigma="0.2" maxSpeed="10"/>
    <vType id="truck" vClass="truck" length="8.0" accel="1.0" decel="3.0" sigma="0.2" maxSpeed="10"/>
    <vType id="emergency" vClass="emergency" length="6.0" accel="3.0" decel="5.0" sigma="0.1" maxSpeed="20" guiShape="emergency"/>
</additional>